Version 4
SHEET 1 936 680
WIRE 848 -192 -256 -192
WIRE -544 -112 -688 -112
WIRE -432 -112 -544 -112
WIRE -256 -112 -256 -192
WIRE -256 -112 -432 -112
WIRE 48 -112 -112 -112
WIRE 512 -112 272 -112
WIRE 704 -112 512 -112
WIRE -256 -64 -256 -112
WIRE 48 -64 48 -112
WIRE 272 -64 272 -112
WIRE 848 -64 848 -192
WIRE 272 48 272 16
WIRE 512 48 272 48
WIRE 576 48 512 48
WIRE 272 64 272 48
WIRE 272 96 272 64
WIRE -544 112 -544 -112
WIRE 512 112 512 48
WIRE 576 128 576 48
WIRE -256 144 -256 16
WIRE -192 144 -256 144
WIRE -112 144 -112 -112
WIRE -112 144 -192 144
WIRE 48 144 48 16
WIRE 128 144 48 144
WIRE 208 144 128 144
WIRE 704 144 704 -112
WIRE 848 144 848 16
WIRE 848 144 704 144
WIRE 288 224 272 224
WIRE -256 240 -256 144
WIRE 48 240 48 144
WIRE 272 240 272 224
WIRE 848 240 848 144
WIRE -544 384 -544 192
WIRE -256 384 -256 320
WIRE -256 384 -544 384
WIRE 272 384 272 320
WIRE 272 384 -256 384
WIRE 512 384 512 192
WIRE 512 384 272 384
WIRE 576 384 576 192
WIRE 576 384 512 384
WIRE 848 384 848 320
WIRE 848 384 576 384
WIRE 272 416 272 384
WIRE -688 464 -688 -112
WIRE 48 464 48 320
WIRE 48 464 -688 464
FLAG 272 416 0
FLAG 512 48 Load
FLAG -192 144 Anode
FLAG -432 -112 HV_supply
FLAG 128 144 V_divider
FLAG 512 -112 LV_supply
FLAG 288 224 Emitter
SYMBOL res 256 224 R0
SYMATTR InstName RE
SYMATTR Value 2.2k
SYMBOL res 64 32 R180
WINDOW 0 36 76 Left 2
WINDOW 3 36 40 Left 2
SYMATTR InstName Rdiv1
SYMATTR Value 10000k
SYMBOL res 256 -80 R0
SYMATTR InstName RC
SYMATTR Value 100k
SYMBOL voltage -544 96 R0
WINDOW 123 0 0 Left 0
WINDOW 39 0 0 Left 0
SYMATTR InstName VPP
SYMATTR Value SINE(180 30 10)
SYMBOL voltage -256 224 R0
WINDOW 123 0 0 Left 0
WINDOW 39 0 0 Left 0
SYMATTR InstName Vnixie
SYMATTR Value PULSE(145 150 10u 1u 1u 0.1 0.1 10)
SYMBOL res -272 -80 R0
SYMATTR InstName Ranode
SYMATTR Value 33k
SYMBOL res 32 224 R0
SYMATTR InstName Rdiv2
SYMATTR Value 100k
SYMBOL res 528 208 R180
WINDOW 0 36 76 Left 2
WINDOW 3 36 40 Left 2
SYMATTR InstName Rload
SYMATTR Value 1000k
SYMBOL cap 560 128 R0
SYMATTR InstName Cload
SYMATTR Value 15p
SYMBOL MPSA42 240 144 R0
SYMATTR InstName Q1
SYMBOL res 864 32 R180
WINDOW 0 36 76 Left 2
WINDOW 3 36 40 Left 2
SYMATTR InstName Rdiv3
SYMATTR Value 10000k
SYMBOL res 832 224 R0
SYMATTR InstName Rdiv4
SYMATTR Value 100k
TEXT 392 488 Left 2 !.tran 20u
TEXT 392 448 Left 2 !.include MPSA42.LIB
