Version 4
SHEET 1 880 680
WIRE 176 64 64 64
WIRE 64 144 64 64
WIRE 176 144 176 64
WIRE 64 288 64 224
WIRE 176 288 176 208
WIRE 176 288 64 288
WIRE 64 320 64 288
FLAG 64 320 0
SYMBOL voltage 64 128 R0
WINDOW 3 -490 110 Left 2
WINDOW 123 0 0 Left 0
WINDOW 39 0 0 Left 0
SYMATTR InstName V1
SYMATTR Value PULSE(170 170 10m 10u 10u 10m 10 10)
SYMBOL cap 160 144 R0
SYMATTR InstName C1
SYMATTR Value 10µ
