Version 4
SHEET 1 1288 680
WIRE 144 -112 80 -112
WIRE 304 -112 144 -112
WIRE 464 -112 384 -112
WIRE 544 -112 464 -112
WIRE 656 -112 608 -112
WIRE 768 -112 656 -112
WIRE 816 -112 768 -112
WIRE 896 -112 816 -112
WIRE 80 -64 80 -112
WIRE 896 -16 896 -112
WIRE 464 64 464 -112
WIRE 464 96 464 64
WIRE 656 112 656 -112
WIRE 768 112 768 -112
WIRE 400 144 256 144
WIRE 896 144 896 64
WIRE 256 224 256 144
WIRE 896 240 896 144
WIRE 256 384 256 304
WIRE 464 384 464 224
WIRE 464 384 256 384
WIRE 656 384 656 176
WIRE 656 384 464 384
WIRE 768 384 768 192
WIRE 768 384 656 384
WIRE 896 384 896 320
WIRE 896 384 768 384
WIRE 464 416 464 384
FLAG 464 416 0
FLAG 144 -112 LV_supply
FLAG 464 -112 HV_BOOST
FLAG 816 -112 HV_supply
FLAG 896 144 HV_sense
FLAG 80 16 0
SYMBOL voltage 256 208 M0
WINDOW 123 0 0 Left 0
WINDOW 39 24 124 Left 2
SYMATTR SpiceLine Rser=1
SYMATTR InstName VGate
SYMATTR Value PULSE(0 3.3 0 1u 1u 0.00009667 0.0001 600k)
SYMBOL MPSA42 432 144 R0
SYMATTR InstName Q1
SYMBOL res 880 80 M180
WINDOW 0 36 76 Left 2
WINDOW 3 36 40 Left 2
SYMATTR InstName Rdiv1
SYMATTR Value 10000k
SYMBOL res 880 224 R0
SYMATTR InstName Rdiv2
SYMATTR Value 100k
SYMBOL voltage 80 -80 R0
WINDOW 123 0 0 Left 0
WINDOW 39 24 124 Left 2
SYMATTR SpiceLine Rser=0.1
SYMATTR InstName VCC
SYMATTR Value 5
SYMBOL ind 288 -96 R270
WINDOW 0 32 56 VTop 2
WINDOW 3 5 56 VBottom 2
SYMATTR InstName L1
SYMATTR Value 820µ
SYMATTR SpiceLine Ipk=1.6 Rser=0.64 Rpar=77244 Cpar=0 mfg="Coilcraft" pn="MSS1583-824"
SYMBOL cap 640 112 R0
SYMATTR InstName C1
SYMATTR Value 470µ
SYMATTR SpiceLine V=250
SYMBOL diode 544 -96 R270
WINDOW 0 32 32 VTop 2
WINDOW 3 0 32 VBottom 2
SYMATTR InstName D1
SYMATTR Value RR2L4S
SYMBOL res 752 96 R0
SYMATTR InstName RLoad
SYMATTR Value 5k
TEXT 624 480 Left 2 !.tran 100m
TEXT 624 448 Left 2 !.include MPSA42.LIB
TEXT 624 416 Left 2 !.include 1N4004RL.LIB
