Version 4
SHEET 1 1900 680
WIRE 624 -176 256 -176
WIRE 912 -176 624 -176
WIRE 1248 -176 912 -176
WIRE 1552 -176 1248 -176
WIRE 144 -112 80 -112
WIRE 464 -112 144 -112
WIRE 752 -112 464 -112
WIRE 992 -112 752 -112
WIRE 1328 -112 992 -112
WIRE 1648 -112 1328 -112
WIRE 80 -64 80 -112
WIRE 752 -64 752 -112
WIRE 992 -64 992 -112
WIRE 1328 -64 1328 -112
WIRE 1648 -64 1648 -112
WIRE 464 -48 464 -112
WIRE 752 32 752 16
WIRE 768 32 752 32
WIRE 992 32 992 16
WIRE 1008 32 992 32
WIRE 1328 32 1328 16
WIRE 1344 32 1328 32
WIRE 1648 32 1648 16
WIRE 1664 32 1648 32
WIRE 464 64 464 32
WIRE 480 64 464 64
WIRE 464 96 464 64
WIRE 752 96 752 32
WIRE 992 96 992 32
WIRE 1328 96 1328 32
WIRE 1648 96 1648 32
WIRE -128 144 -256 144
WIRE 256 144 256 -176
WIRE 256 144 -64 144
WIRE 336 144 256 144
WIRE 400 144 336 144
WIRE 1248 160 1248 -176
WIRE 1280 160 1248 160
WIRE 624 176 624 -176
WIRE 704 176 624 176
WIRE 912 176 912 -176
WIRE 944 176 912 176
WIRE 1552 176 1552 -176
WIRE 1600 176 1552 176
WIRE -256 224 -256 144
WIRE 256 224 256 144
WIRE 464 240 464 192
WIRE 480 240 464 240
WIRE 752 240 752 192
WIRE 768 240 752 240
WIRE 992 240 992 192
WIRE 1008 240 992 240
WIRE 1328 240 1328 192
WIRE 1344 240 1328 240
WIRE 1648 240 1648 192
WIRE 1664 240 1648 240
WIRE 464 256 464 240
WIRE 752 256 752 240
WIRE 992 256 992 240
WIRE 1328 256 1328 240
WIRE 1648 256 1648 240
WIRE -256 384 -256 304
WIRE 256 384 256 304
WIRE 256 384 -256 384
WIRE 464 384 464 336
WIRE 464 384 256 384
WIRE 752 384 752 336
WIRE 752 384 464 384
WIRE 992 384 992 336
WIRE 992 384 752 384
WIRE 1328 384 1328 336
WIRE 1328 384 992 384
WIRE 1648 384 1648 336
WIRE 1648 384 1328 384
WIRE 464 416 464 384
FLAG 464 416 0
FLAG 144 -112 LV_supply
FLAG 80 16 0
FLAG 336 144 Base/Gate
FLAG 480 64 Collector
FLAG 480 240 Emitter
FLAG 768 32 Drain1
FLAG 768 240 Source1
FLAG 1008 32 Drain2
FLAG 1008 240 Source2
FLAG 1344 32 Drain3
FLAG 1344 240 Source3
FLAG 1664 32 Drain4
FLAG 1664 240 Source4
SYMBOL voltage 256 208 M0
WINDOW 123 0 0 Left 0
WINDOW 39 24 124 Left 2
SYMATTR SpiceLine Rser=0
SYMATTR InstName VDrive
SYMATTR Value SINE(0 5 10 0 0 0 1k)
SYMBOL voltage 80 -80 R0
WINDOW 123 0 0 Left 0
WINDOW 39 24 124 Left 2
SYMATTR SpiceLine Rser=0
SYMATTR InstName VCC
SYMATTR Value 50
SYMBOL res 448 240 R0
SYMATTR InstName REmitter
SYMATTR Value 1k
SYMBOL res -272 208 R0
SYMATTR InstName RDiode
SYMATTR Value 1k
SYMBOL res 448 -64 R0
SYMATTR InstName RCollector
SYMATTR Value 10k
SYMBOL res 736 -80 R0
SYMATTR InstName RDrain1
SYMATTR Value 10k
SYMBOL res 736 240 R0
SYMATTR InstName RSource1
SYMATTR Value 1k
SYMBOL diode -64 128 R90
WINDOW 0 0 32 VBottom 2
WINDOW 3 32 32 VTop 2
SYMATTR InstName D1
SYMATTR Value D1n4004rl
SYMBOL npn 400 96 R0
SYMATTR InstName Q1
SYMATTR Value MPSA42
SYMBOL BSP88_L0 704 96 R0
SYMATTR InstName U1
SYMBOL BSP88_L0 944 96 R0
SYMATTR InstName U2
SYMATTR Value NMOS_SSM3K2615R
SYMBOL res 976 -80 R0
SYMATTR InstName RDrain2
SYMATTR Value 10k
SYMBOL res 976 240 R0
SYMATTR InstName RSource2
SYMATTR Value 1k
SYMBOL rjp020n06 1280 96 R0
SYMATTR InstName U3
SYMBOL res 1312 -80 R0
SYMATTR InstName RDrain3
SYMATTR Value 10k
SYMBOL res 1312 240 R0
SYMATTR InstName RSource3
SYMATTR Value 1k
SYMBOL res 1632 -80 R0
SYMATTR InstName RDrain4
SYMATTR Value 10k
SYMBOL res 1632 240 R0
SYMATTR InstName RSource4
SYMATTR Value 1k
SYMBOL BSP88_L0 1600 96 R0
SYMATTR InstName U4
SYMATTR Value SiB452DK
TEXT -248 16 Left 2 !.tran 100m
TEXT -248 -16 Left 2 !.include MPSA42.LIB
TEXT -248 -48 Left 2 !.include 1N4004RL.LIB
TEXT -248 -80 Left 2 !.include SSM3K2615R.LIB
TEXT -248 -112 Left 2 !.include SiB452DK_PS.LIB
