Version 4
SHEET 1 1340 680
WIRE 832 -752 160 -752
WIRE -144 -672 -272 -672
WIRE 160 -672 160 -752
WIRE 160 -672 -144 -672
WIRE 720 -672 592 -672
WIRE -144 -624 -144 -672
WIRE 160 -624 160 -672
WIRE 592 -624 592 -672
WIRE 832 -624 832 -752
WIRE 160 -528 160 -544
WIRE 304 -528 160 -528
WIRE 352 -528 304 -528
WIRE 720 -496 720 -672
WIRE 832 -496 832 -544
WIRE 832 -496 720 -496
WIRE 848 -496 832 -496
WIRE -144 -464 -144 -544
WIRE 160 -464 160 -528
WIRE 832 -448 832 -496
WIRE -512 -416 -608 -416
WIRE -272 -416 -272 -672
WIRE -272 -416 -512 -416
WIRE -208 -416 -272 -416
WIRE 480 -416 224 -416
WIRE 592 -416 592 -544
WIRE 592 -416 480 -416
WIRE -608 -352 -608 -416
WIRE 352 -352 352 -528
WIRE 464 -352 352 -352
WIRE 352 -320 352 -352
WIRE 592 -320 592 -416
WIRE 464 -304 464 -352
WIRE -144 -288 -144 -368
WIRE 160 -288 160 -368
WIRE 352 -208 352 -240
WIRE 416 -208 352 -208
WIRE 464 -208 464 -240
WIRE 464 -208 416 -208
WIRE 416 -176 416 -208
WIRE 592 -176 592 -240
WIRE -144 -160 -144 -208
WIRE 16 -160 -144 -160
WIRE 160 -160 160 -208
WIRE 160 -160 16 -160
WIRE 16 -80 16 -160
WIRE -384 -32 -464 -32
WIRE -224 -32 -384 -32
WIRE -208 -32 -224 -32
WIRE -48 -32 -128 -32
WIRE -464 32 -464 -32
WIRE -224 64 -224 -32
WIRE 16 112 16 16
WIRE -464 208 -464 112
WIRE -224 208 -224 128
WIRE -224 208 -464 208
WIRE 16 208 16 192
WIRE 16 208 -224 208
WIRE 16 240 16 208
FLAG 16 240 0
FLAG -608 -272 0
FLAG -512 -416 HV_supply
FLAG 848 -496 Anode
FLAG 832 -368 0
FLAG -384 -32 LV_supply
FLAG 416 -176 0
FLAG 304 -528 Load
FLAG 592 -176 0
FLAG 480 -416 Anode_div
SYMBOL References\\LT1634-1.25 -224 96 R0
SYMATTR InstName U1
SYMBOL res 0 96 R0
SYMATTR InstName RE3
SYMATTR Value 3.24k
SYMBOL res -112 -48 R90
WINDOW 0 0 56 VBottom 2
WINDOW 3 32 56 VTop 2
SYMATTR InstName RB1
SYMATTR Value 10k
SYMBOL voltage -464 16 R0
WINDOW 123 0 0 Left 0
WINDOW 39 0 0 Left 0
SYMATTR InstName VCC
SYMATTR Value 5
SYMBOL res -160 -304 R0
SYMATTR InstName RE1
SYMATTR Value 100k
SYMBOL res 144 -304 R0
SYMATTR InstName RE2
SYMATTR Value 100k
SYMBOL res -160 -640 R0
SYMATTR InstName RC1
SYMATTR Value 2.2k
SYMBOL res 144 -640 R0
SYMATTR InstName RC2
SYMATTR Value 2.2k
SYMBOL voltage -608 -368 R0
WINDOW 123 0 0 Left 0
WINDOW 39 0 0 Left 0
SYMATTR InstName VPP
SYMATTR Value 170
SYMBOL res 816 -640 R0
SYMATTR InstName Ranode
SYMATTR Value 33k
SYMBOL voltage 832 -464 R0
SYMATTR InstName Vnixie
SYMATTR Value PULSE(145 150 10u 1u 1u 0.1 0.1 10)
SYMBOL res 336 -336 R0
SYMATTR InstName R1
SYMATTR Value 1000k
SYMBOL cap 448 -304 R0
SYMATTR InstName C1
SYMATTR Value 15p
SYMBOL res 576 -640 R0
SYMATTR InstName Rdiv1
SYMATTR Value 10000k
SYMBOL res 576 -336 R0
SYMATTR InstName Rdiv2
SYMATTR Value 100k
SYMBOL npn -208 -464 R0
SYMATTR InstName Q1
SYMATTR Value MPSA42
SYMBOL npn 224 -464 M0
SYMATTR InstName Q3
SYMATTR Value MPSA42
SYMBOL npn -48 -80 R0
SYMATTR InstName Q2
SYMATTR Value MPSA42
TEXT 296 -56 Left 2 !.tran 20u
TEXT 296 -80 Left 2 !.include MPSA42.LIB
TEXT 592 -80 Left 2 ;AoE 3E 2.3.8 differential amplifiers\nG_{diff} = R_{C}/(2*(R_{E}+r_{e}))\nG_{diff} = 2.2k/(2*(100k+~1)) = 0.011 = 90.~{90}
