Version 4
SHEET 1 2108 772
WIRE 144 -112 80 -112
WIRE 304 -112 144 -112
WIRE 432 -112 384 -112
WIRE 512 -112 432 -112
WIRE 592 -112 512 -112
WIRE 704 -112 592 -112
WIRE 896 -112 768 -112
WIRE 1024 -112 896 -112
WIRE 1152 -112 1088 -112
WIRE 1280 -112 1152 -112
WIRE 1360 -112 1280 -112
WIRE 1408 -112 1360 -112
WIRE 80 -64 80 -112
WIRE 896 -48 896 -112
WIRE 592 -16 592 -112
WIRE 1408 -16 1408 -112
WIRE 1280 32 1280 -112
WIRE 80 48 80 16
WIRE 432 48 432 -112
WIRE 1152 112 1152 -112
WIRE 384 128 256 128
WIRE 592 128 592 48
WIRE 704 128 592 128
WIRE 896 128 896 16
WIRE 896 128 768 128
WIRE 912 128 896 128
WIRE 1408 144 1408 64
WIRE 1424 144 1408 144
WIRE 592 192 592 128
WIRE 608 192 592 192
WIRE 256 224 256 128
WIRE 592 224 592 192
WIRE 896 224 896 128
WIRE 1280 240 1280 112
WIRE 1408 240 1408 144
WIRE 256 384 256 304
WIRE 432 384 432 144
WIRE 432 384 256 384
WIRE 592 384 592 288
WIRE 592 384 432 384
WIRE 896 384 896 288
WIRE 896 384 592 384
WIRE 1152 384 1152 176
WIRE 1152 384 896 384
WIRE 1280 384 1280 320
WIRE 1280 384 1152 384
WIRE 1408 384 1408 320
WIRE 1408 384 1280 384
WIRE 432 416 432 384
FLAG 432 416 0
FLAG 144 -112 5V_supply
FLAG 512 -112 100V_BOOST
FLAG 896 -112 200V_BOOST
FLAG 1424 144 HV_sense
FLAG 80 48 0
FLAG 1360 -112 200V_supply
FLAG 912 128 100V_SUPPLY
FLAG 608 192 50V_BOOST
SYMBOL voltage 256 208 M0
WINDOW 123 0 0 Left 0
WINDOW 39 24 124 Left 2
SYMATTR SpiceLine Rser=0.1
SYMATTR InstName VGate1
SYMATTR Value PULSE(0 3.3 0 5n 5n 9.1u 10u 6000k)
SYMBOL res 1392 80 M180
WINDOW 0 36 76 Left 2
WINDOW 3 36 40 Left 2
SYMATTR InstName Rdiv1
SYMATTR Value 10000k
SYMBOL res 1392 224 R0
SYMATTR InstName Rdiv2
SYMATTR Value 100k
SYMBOL voltage 80 -80 R0
WINDOW 123 0 0 Left 0
WINDOW 39 24 124 Left 2
SYMATTR SpiceLine Rser=0.01
SYMATTR InstName VCC
SYMATTR Value 4.75
SYMBOL ind 288 -96 R270
WINDOW 0 32 56 VTop 2
WINDOW 3 5 56 VBottom 2
SYMATTR InstName L1
SYMATTR Value 820µ
SYMATTR SpiceLine Ipk=10 Rser=0.1 Rpar=7724400 Cpar=0
SYMBOL cap 1136 112 R0
SYMATTR InstName C4
SYMATTR Value 10µ
SYMATTR SpiceLine V=250
SYMBOL BSP88_L0 384 48 R0
SYMATTR InstName U1
SYMBOL diode 608 288 R180
WINDOW 0 24 64 Left 2
WINDOW 3 24 0 Left 2
SYMATTR InstName D1
SYMATTR Value D1n4004rl
SYMBOL diode 704 144 R270
WINDOW 0 32 32 VTop 2
WINDOW 3 0 32 VBottom 2
SYMATTR InstName D2
SYMATTR Value D1n4004rl
SYMBOL diode 912 16 R180
WINDOW 0 24 64 Left 2
WINDOW 3 24 0 Left 2
SYMATTR InstName D3
SYMATTR Value D1n4004rl
SYMBOL diode 1024 -96 R270
WINDOW 0 32 32 VTop 2
WINDOW 3 0 32 VBottom 2
SYMATTR InstName D4
SYMATTR Value D1n4004rl
SYMBOL cap 576 -16 R0
SYMATTR InstName C1
SYMATTR Value 10µ
SYMATTR SpiceLine V=250
SYMBOL cap 880 224 R0
SYMATTR InstName C3
SYMATTR Value 10µ
SYMATTR SpiceLine V=250
SYMBOL cap 768 -128 R90
WINDOW 0 0 32 VBottom 2
WINDOW 3 32 32 VTop 2
SYMATTR InstName C2
SYMATTR Value 10µ
SYMATTR SpiceLine V=250
SYMBOL load2 1280 32 R0
WINDOW 123 0 0 Left 0
WINDOW 39 0 0 Left 0
SYMATTR InstName I1
SYMATTR Value {ILoad}
SYMBOL res 1264 224 R0
SYMATTR InstName RLoad
SYMATTR Value 4.5k
TEXT 624 512 Left 2 !.tran 300m
TEXT 624 480 Left 2 !.include 1N4004RL.LIB
TEXT 624 448 Left 2 !*.step param ILoad 0.10 0.040 0.010
TEXT 672 -184 Left 2 ;Greinacher voltage quadrupler
TEXT 248 -184 Left 2 ;DCM 5 to 50 V boost convertor
TEXT 1064 448 Left 2 !.param ILoad=0.0025
