Version 4
SHEET 1 2032 772
WIRE 960 -304 864 -304
WIRE 1168 -304 1024 -304
WIRE 1232 -304 1168 -304
WIRE 1424 -304 1296 -304
WIRE 1680 -304 1424 -304
WIRE 1168 -240 1168 -304
WIRE 1424 -240 1424 -304
WIRE 144 -112 80 -112
WIRE 304 -112 144 -112
WIRE 432 -112 384 -112
WIRE 464 -112 432 -112
WIRE 608 -112 464 -112
WIRE 720 -112 608 -112
WIRE 864 -112 864 -304
WIRE 864 -112 784 -112
WIRE 944 -112 864 -112
WIRE 1168 -112 1168 -176
WIRE 1168 -112 1008 -112
WIRE 1296 -112 1168 -112
WIRE 1424 -112 1424 -176
WIRE 1424 -112 1296 -112
WIRE 1680 -112 1680 -304
WIRE 1760 -112 1680 -112
WIRE 1808 -112 1760 -112
WIRE 80 -64 80 -112
WIRE 864 -32 864 -112
WIRE 1808 -16 1808 -112
WIRE 1424 0 1424 -112
WIRE 80 48 80 16
WIRE 432 48 432 -112
WIRE 384 128 256 128
WIRE 608 128 608 -112
WIRE 720 128 608 128
WIRE 864 128 864 32
WIRE 864 128 784 128
WIRE 1424 128 1424 64
WIRE 1424 128 864 128
WIRE 1808 144 1808 64
WIRE 1424 208 1424 128
WIRE 256 224 256 128
WIRE 1680 240 1680 -112
WIRE 1808 240 1808 144
WIRE 256 384 256 304
WIRE 432 384 432 144
WIRE 432 384 256 384
WIRE 1424 384 1424 272
WIRE 1424 384 432 384
WIRE 1680 384 1680 320
WIRE 1680 384 1424 384
WIRE 1808 384 1808 320
WIRE 1808 384 1680 384
WIRE 432 416 432 384
FLAG 432 416 0
FLAG 144 -112 5V_supply
FLAG 464 -112 BOOST
FLAG 1296 -112 50V_supply
FLAG 1808 144 HV_sense
FLAG 80 48 0
FLAG 1760 -112 HV_supply
SYMBOL voltage 256 208 M0
WINDOW 123 0 0 Left 0
WINDOW 39 24 124 Left 2
SYMATTR SpiceLine Rser=0.1
SYMATTR InstName VGate1
SYMATTR Value PULSE(0 5 0 10n 10n 9.1u 10u 6000k)
SYMBOL res 1792 80 M180
WINDOW 0 36 76 Left 2
WINDOW 3 36 40 Left 2
SYMATTR InstName Rdiv1
SYMATTR Value 10000k
SYMBOL res 1792 224 R0
SYMATTR InstName Rdiv2
SYMATTR Value 100k
SYMBOL voltage 80 -80 R0
WINDOW 123 0 0 Left 0
WINDOW 39 24 124 Left 2
SYMATTR SpiceLine Rser=0.01
SYMATTR InstName VCC
SYMATTR Value 4.75
SYMBOL ind 288 -96 R270
WINDOW 0 32 56 VTop 2
WINDOW 3 5 56 VBottom 2
SYMATTR InstName L1
SYMATTR Value 470µ
SYMATTR SpiceLine Ipk=1.4 Rser=0.437 Rpar=105259 Cpar=20.593p mfg="Würth Elektronik" pn="7447709471 WE-PD 1210"
SYMBOL cap 1408 0 R0
SYMATTR InstName C2
SYMATTR Value 10µ
SYMATTR SpiceLine V=250
SYMBOL BSP88_L0 384 48 R0
SYMATTR InstName U1
SYMBOL diode 720 144 R270
WINDOW 0 32 32 VTop 2
WINDOW 3 0 32 VBottom 2
SYMATTR InstName D1
SYMATTR Value D1n4004rl
SYMBOL diode 880 32 R180
WINDOW 0 24 64 Left 2
WINDOW 3 24 0 Left 2
SYMATTR InstName D2
SYMATTR Value D1n4004rl
SYMBOL diode 944 -96 R270
WINDOW 0 32 32 VTop 2
WINDOW 3 0 32 VBottom 2
SYMATTR InstName D3
SYMATTR Value D1n4004rl
SYMBOL cap 1408 208 R0
SYMATTR InstName C3
SYMATTR Value 10µ
SYMATTR SpiceLine V=250
SYMBOL cap 784 -128 R90
WINDOW 0 0 32 VBottom 2
WINDOW 3 32 32 VTop 2
SYMATTR InstName C1
SYMATTR Value 100n
SYMATTR SpiceLine V=250
SYMBOL res 1664 224 R0
SYMATTR InstName RAnode
SYMATTR Value 27k
SYMBOL diode 1184 -176 R180
WINDOW 0 24 64 Left 2
WINDOW 3 24 0 Left 2
SYMATTR InstName D4
SYMATTR Value D1n4004rl
SYMBOL diode 1232 -288 R270
WINDOW 0 32 32 VTop 2
WINDOW 3 0 32 VBottom 2
SYMATTR InstName D5
SYMATTR Value D1n4004rl
SYMBOL cap 1024 -320 R90
WINDOW 0 0 32 VBottom 2
WINDOW 3 32 32 VTop 2
SYMATTR InstName C4
SYMATTR Value 100n
SYMATTR SpiceLine V=250
SYMBOL cap 1408 -240 R0
SYMATTR InstName C5
SYMATTR Value 10µ
SYMATTR SpiceLine V=250
TEXT 624 512 Left 2 !.tran 100m
TEXT 624 480 Left 2 !.include 1N4004RL.LIB
TEXT 624 448 Left 2 !*.step param ILoad 0.10 0.040 0.010
TEXT 880 256 Left 2 ;2x voltage doubler
TEXT 184 -208 Left 2 ;DCM 5 to 50 V CCM boost convertor
TEXT 1064 448 Left 2 !.param ILoad 0.10
